*Heading
** Job name: u30mm Model name: Active_extension
** Generated by: Abaqus/CAE 2025
*Preprint, echo=NO, model=NO, history=NO, contact=NO
**
** PARTS
**
*Part, name=Bottom
*Node
      1,        20.75,          10.,           0.
      2,        20.75,           9.,           0.
      3,           0.,          10.,           0.
      4,          30.,          10.,           0.
      5,   20.5288754,          10.,   3.02122426
      6,   19.8702126,          10.,   5.97805643
      7,   18.7880516,          10.,   8.80747604
      8,   17.3054543,          10.,   11.4491806
      9,   15.4540224,          10.,   13.8468657
     10,   13.2732153,          10.,   15.9494286
     11,   10.8095121,          10.,   17.7120571
     12,    8.1154232,          10.,   19.0971832
     13,   5.24836779,          10.,   20.0752869
     14,   2.26945257,          10.,   20.6255207
     15, -0.757831991,          10.,   20.7361565
     16,  -3.76896477,          10.,   20.4048386
     17,  -6.69976854,          10.,   19.6386261
     18,  -9.48777866,          10.,   18.4538498
     19,  -12.0735722,          10.,   16.8757629
     20,  -14.4020395,          10.,   14.9379969
** ... 431 like lines cut
*Element, type=R3D3
 1,  1, 46,  2
 2, 46, 88,  2
 3, 46, 45, 88
 4, 45, 87, 88
 5, 45, 44, 87
 6, 44, 86, 87
 7, 44, 43, 86
 8, 43, 85, 86
 9, 43, 42, 85
10, 42, 84, 85
11, 42, 41, 84
12, 41, 83, 84
13, 41, 40, 83
14, 40, 82, 83
15, 40, 39, 82
16, 39, 81, 82
17, 39, 38, 81
18, 38, 80, 81
19, 38, 37, 80
20, 37, 79, 80
** ... 817 like lines cut
*Node
    452,           0.,          10.,           0.
*Nset, nset=Bottom-RefPt_, internal
452, 
*Elset, elset=Bottom, generate
   1,  837,    1
*End Part
**  
*Part, name=Top
*Node
      1,        20.75,          10.,           0.
      2,        20.75,           9.,           0.
      3,           0.,          10.,           0.
      4,          30.,          10.,           0.
      5,   20.5288754,          10.,   3.02122426
      6,   19.8702126,          10.,   5.97805643
      7,   18.7880516,          10.,   8.80747604
      8,   17.3054543,          10.,   11.4491806
      9,   15.4540224,          10.,   13.8468657
     10,   13.2732153,          10.,   15.9494286
     11,   10.8095121,          10.,   17.7120571
     12,    8.1154232,          10.,   19.0971832
     13,   5.24836779,          10.,   20.0752869
     14,   2.26945257,          10.,   20.6255207
     15, -0.757831991,          10.,   20.7361565
     16,  -3.76896477,          10.,   20.4048386
     17,  -6.69976854,          10.,   19.6386261
     18,  -9.48777866,          10.,   18.4538498
     19,  -12.0735722,          10.,   16.8757629
     20,  -14.4020395,          10.,   14.9379969
** ... 431 like lines cut
*Element, type=R3D3
 1,  1, 46,  2
 2, 46, 88,  2
 3, 46, 45, 88
 4, 45, 87, 88
 5, 45, 44, 87
 6, 44, 86, 87
 7, 44, 43, 86
 8, 43, 85, 86
 9, 43, 42, 85
10, 42, 84, 85
11, 42, 41, 84
12, 41, 83, 84
13, 41, 40, 83
14, 40, 82, 83
15, 40, 39, 82
16, 39, 81, 82
17, 39, 38, 81
18, 38, 80, 81
19, 38, 37, 80
20, 37, 79, 80
** ... 817 like lines cut
*Node
    452,           0.,          10.,           0.
*Nset, nset=Top-RefPt_, internal
452, 
*Elset, elset=Top, generate
   1,  837,    1
*End Part
**  
*Part, name=shell_editCap
*Node
      1,           0.,           0.,   68.6999969
      2,        -1.75,           0.,   66.9499969
      3,       -39.75,           0.,   66.9499969
      4,        -41.5,           0.,   68.6999969
      5,           0.,           0.,   58.7000008
      6,        -1.75,           0.,   56.9500008
      7,       -39.75,           0.,   56.9500008
      8,        -41.5,           0.,   58.7000008
      9,           0.,           0.,   48.7000008
     10,        -1.75,           0.,   46.9500008
     11,       -39.75,           0.,   46.9500008
     12,        -41.5,           0.,   48.7000008
     13,           0.,           0.,   38.7000008
     14,        -1.75,           0.,   36.9500008
     15,       -39.75,           0.,   36.9500008
     16,        -41.5,           0.,   38.7000008
     17,           0.,           0.,   28.7000008
     18,        -1.75,           0.,   26.9500008
     19,       -39.75,           0.,   26.9500008
     20,        -41.5,           0.,   28.7000008
** ... 16456 like lines cut
*Element, type=S4R
  1,    1,   69, 4695,  200
  2,   69,   70, 4696, 4695
  3,   70,    2,   71, 4696
  4,  200, 4695, 4697,  199
  5, 4695, 4696, 4698, 4697
  6, 4696,   71,   72, 4698
  7,  199, 4697, 4699,  198
  8, 4697, 4698, 4700, 4699
  9, 4698,   72,   73, 4700
 10,  198, 4699, 4701,  197
 11, 4699, 4700, 4702, 4701
 12, 4700,   73,   74, 4702
 13,  197, 4701, 4703,  196
 14, 4701, 4702, 4704, 4703
 15, 4702,   74,   75, 4704
 16,  196, 4703, 4705,  195
 17, 4703, 4704, 4706, 4705
 18, 4704,   75,   76, 4706
 19,  195, 4705, 4707,  194
 20, 4705, 4706, 4708, 4707
** ... 16284 like lines cut
*Element, type=S3
9359, 3560, 3217, 3216
9360, 3538, 3194, 3193
9361, 3029, 3496, 3495
9362, 3172, 3171, 3517
9363, 3451, 3450, 3072
9364, 3474, 3473, 3050
9690,  850, 2876, 2875
9691,  935, 3581, 3582
9692,  957, 3604, 3605
9693,  978, 3626, 3627
9694,  807, 2921, 2920
9695, 2899, 2898,  828
10506, 3758, 2997, 2996
10507, 3736, 2974, 2973
10508, 2809, 3694, 3693
10509, 2952, 2951, 3715
10510, 3649, 3648, 2852
10511, 3672, 3671, 2830
10837,  718, 2656, 2655
10838, 1063, 3779, 3780
** ... 52 like lines cut
*Nset, nset=_PickedSet2, internal, generate
     1,  16476,      1
*Elset, elset=_PickedSet2, internal, generate
     1,  16376,      1
** Section: Bellows
*Shell Section, elset=_PickedSet2, material=BBDINO30
1.5, 5
*End Part
**  
**
** ASSEMBLY
**
*Assembly, name=Assembly
**  
*Instance, name=shell_editCap-1, part=shell_editCap
       20.75,     69.98305,           0.
       20.75,     69.98305,           0.,        21.75,     69.98305,           0.,          90.
*End Instance
**  
*Instance, name=Top-1, part=Top
          0.,      53.5261,           0.
*End Instance
**  
*Instance, name=Bottom-1, part=Bottom
          0.,         2.54,           0.
          0.,         2.54,           0.,           0.,         2.54,           1.,         180.
*End Instance
**  
*Nset, nset=BottomRimBellows, instance=shell_editCap-1
   25,   26, 1629, 1630, 1631, 1632, 1633, 1634, 1635, 1636, 1637, 1638, 1639, 1640, 1641, 1642
 1643, 1644, 1645, 1646, 1647, 1648, 1649, 1650, 1651, 1652, 1653, 1654, 1655, 1656, 1657, 1658
 1659, 1660, 1661, 1662, 1663, 1664, 1665, 1666, 1667, 1668, 1669, 1670, 1671, 1672, 1673, 1674
 1675, 1676, 1677, 1678, 1679, 1680, 1681, 1682, 1683, 1684, 1685, 1686, 1687, 1688, 1689, 1690
 1691, 1692, 1693, 1694, 1695, 4628, 4629, 4630, 4631, 4632, 4633, 4634, 4635, 4636, 4637, 4638
 4639, 4640, 4641, 4642, 4643, 4644, 4645, 4646, 4647, 4648, 4649, 4650, 4651, 4652, 4653, 4654
 4655, 4656, 4657, 4658, 4659, 4660, 4661, 4662, 4663, 4664, 4665, 4666, 4667, 4668, 4669, 4670
 4671, 4672, 4673, 4674, 4675, 4676, 4677, 4678, 4679, 4680, 4681, 4682, 4683, 4684, 4685, 4686
 4687, 4688, 4689, 4690, 4691, 4692, 4693, 4694
*Elset, elset=BottomRimBellows, instance=shell_editCap-1
  2341,  2342,  2343,  2344,  2345,  2346,  2347,  2348,  2349,  2350,  2351,  2352,  2353,  2354,  2355,  2356
  2357,  2358,  2359,  2360,  2361,  2362,  2363,  2364,  2365,  2366,  2367,  2368,  2369,  2370,  2371,  2372
  2373,  2374,  2375,  2376,  2377,  2378,  2379,  2380,  2381,  2382,  2383,  2384,  2385,  2386,  2387,  2388
  2389,  2390,  2391,  2392,  2393,  2394,  2395,  2396,  2397,  2398,  2399,  2400,  2401,  2402,  2403,  2404
  2405,  2406,  2407,  2408, 16242, 16244, 16246, 16248, 16250, 16252, 16254, 16256, 16258, 16260, 16262, 16264
 16266, 16268, 16270, 16272, 16274, 16276, 16278, 16280, 16282, 16284, 16286, 16288, 16290, 16292, 16294, 16296
 16298, 16300, 16302, 16304, 16306, 16308, 16310, 16312, 16314, 16316, 16318, 16320, 16322, 16324, 16326, 16328
 16330, 16332, 16334, 16336, 16338, 16340, 16342, 16344, 16346, 16348, 16350, 16352, 16354, 16356, 16358, 16360
 16362, 16364, 16366, 16368, 16370, 16372, 16374, 16376
*Nset, nset=BottomRimCap, instance=Bottom-1
  2, 47, 48, 49, 50, 51, 52, 53, 54, 55, 56, 57, 58, 59, 60, 61
 62, 63, 64, 65, 66, 67, 68, 69, 70, 71, 72, 73, 74, 75, 76, 77
 78, 79, 80, 81, 82, 83, 84, 85, 86, 87, 88
*Elset, elset=BottomRimCap, instance=Bottom-1, generate
  2,  86,   2
*Nset, nset=RF, instance=Top-1
 452,
*Nset, nset=TopRimBellows, instance=shell_editCap-1
   67,   68, 3305, 3306, 3307, 3308, 3309, 3310, 3311, 3312, 3313, 3314, 3315, 3316, 3317, 3318
 3319, 3320, 3321, 3322, 3323, 3324, 3325, 3326, 3327, 3328, 3329, 3330, 3331, 3332, 3333, 3334
 3335, 3336, 3337, 3338, 3339, 3340, 3341, 3342, 3343, 3344, 3345, 3346, 3347, 3348, 3349, 3350
 3351, 3352, 3353, 3354, 3355, 3356, 3357, 3358, 3359, 3360, 3361, 3362, 3363, 3364, 3365, 3366
 3367, 3368, 3369, 3370, 3371, 3373, 3374, 3375, 3376, 3377, 3378, 3379, 3380, 3381, 3382, 3383
 3384, 3385, 3386, 3387, 3388, 3389, 3390, 3391, 3392, 3393, 3394, 3395, 3396, 3397, 3398, 3399
 3400, 3401, 3402, 3403, 3404, 3405, 3406, 3407, 3408, 3409, 3410, 3411, 3412, 3413, 3414, 3415
 3416, 3417, 3418, 3419, 3420, 3421, 3422, 3423, 3424, 3425, 3426, 3427, 3428, 3429, 3430, 3431
 3432, 3433, 3434, 3435, 3436, 3437, 3438, 3439
*Elset, elset=TopRimBellows, instance=shell_editCap-1
 8475, 8476, 8477, 8478, 8479, 8480, 8481, 8482, 8483, 8484, 8485, 8486, 8487, 8488, 8489, 8490
 8491, 8492, 8493, 8494, 8495, 8496, 8497, 8498, 8499, 8500, 8501, 8502, 8503, 8504, 8505, 8506
 8507, 8508, 8509, 8510, 8511, 8512, 8513, 8514, 8515, 8516, 8517, 8518, 8519, 8520, 8521, 8522
 8523, 8524, 8525, 8526, 8527, 8528, 8529, 8530, 8531, 8532, 8533, 8534, 8535, 8536, 8537, 8538
 8539, 8540, 8541, 8542, 8543, 8545, 8547, 8549, 8551, 8553, 8555, 8557, 8559, 8561, 8563, 8565
 8567, 8569, 8571, 8573, 8575, 8577, 8579, 8581, 8583, 8585, 8587, 8589, 8591, 8593, 8595, 8597
 8599, 8601, 8603, 8605, 8607, 8609, 8611, 8613, 8615, 8617, 8619, 8621, 8623, 8625, 8627, 8629
 8631, 8633, 8635, 8637, 8639, 8641, 8643, 8645, 8647, 8649, 8651, 8653, 8655, 8657, 8659, 8661
 8663, 8665, 8667, 8669, 8671, 8673, 8675, 8677
*Nset, nset=TopRimCap, instance=Top-1
  2, 47, 48, 49, 50, 51, 52, 53, 54, 55, 56, 57, 58, 59, 60, 61
 62, 63, 64, 65, 66, 67, 68, 69, 70, 71, 72, 73, 74, 75, 76, 77
 78, 79, 80, 81, 82, 83, 84, 85, 86, 87, 88
*Elset, elset=TopRimCap, instance=Top-1, generate
  2,  86,   2
*Nset, nset=_PickedSet39, internal, instance=Bottom-1
 452,
*Elset, elset=_BellowsInner_SNEG, internal, instance=shell_editCap-1, generate
     1,  16376,      1
*Surface, type=ELEMENT, name=BellowsInner
_BellowsInner_SNEG, SNEG
*Elset, elset=_BellowsOuter_SPOS, internal, instance=shell_editCap-1, generate
     1,  16376,      1
*Surface, type=ELEMENT, name=BellowsOuter
_BellowsOuter_SPOS, SPOS
*Elset, elset=_Bottom_SNEG, internal, instance=Bottom-1, generate
 450,  837,    1
*Surface, type=ELEMENT, name=Bottom
_Bottom_SNEG, SNEG
*Elset, elset=_Top_SNEG, internal, instance=Top-1, generate
 450,  837,    1
*Surface, type=ELEMENT, name=Top
_Top_SNEG, SNEG
*Elset, elset=_TopandBottom_SNEG, internal, instance=Top-1, generate
 450,  837,    1
*Elset, elset=_TopandBottom_SNEG, internal, instance=Bottom-1, generate
 450,  837,    1
*Surface, type=ELEMENT, name=TopandBottom
_TopandBottom_SNEG, SNEG
*Surface, type=NODE, name=BottomRimCap_CNS_, internal
BottomRimCap, 1.
*Surface, type=NODE, name=BottomRimBellows_CNS_, internal
BottomRimBellows, 1.
*Surface, type=NODE, name=TopRimCap_CNS_, internal
TopRimCap, 1.
*Surface, type=NODE, name=TopRimBellows_CNS_, internal
TopRimBellows, 1.
*Rigid Body, ref node=Top-1.Top-RefPt_, elset=Top-1.Top
*Rigid Body, ref node=Bottom-1.Bottom-RefPt_, elset=Bottom-1.Bottom
** Constraint: BottomTie
*Tie, name=BottomTie, adjust=yes, position tolerance=0.
BottomRimBellows_CNS_, BottomRimCap_CNS_
** Constraint: TopTie
*Tie, name=TopTie, adjust=yes, position tolerance=0.
TopRimBellows_CNS_, TopRimCap_CNS_
*End Assembly
** 
** MATERIALS
** 
*Material, name=BBDINO30
*Density
 1.06e-09,
*Hyperelastic, mooney-rivlin
 0.090793, 0.009588,       0.
*Material, name=Rigid
*Elastic
 1e+10, 0.3
** 
** INTERACTION PROPERTIES
** 
*Surface Interaction, name=Self-contact
1.,
*Friction, slip tolerance=0.005
 0.2,
*Surface Behavior, pressure-overclosure=HARD
** 
** BOUNDARY CONDITIONS
** 
** Name: BottomFix Type: Symmetry/Antisymmetry/Encastre
*Boundary
_PickedSet39, ENCASTRE
** 
** INTERACTIONS
** 
** Interaction: Self-contact
*Contact Pair, interaction=Self-contact, type=SURFACE TO SURFACE
BellowsOuter,
** ----------------------------------------------------------------
** 
** STEP: Compression
** 
*Step, name=Compression, nlgeom=YES, inc=1500
*Static
0.01, 1., 1e-05, 0.05
** 
** BOUNDARY CONDITIONS
** 
** Name: Extension Type: Displacement/Rotation
*Boundary
RF, 1, 1
RF, 2, 2, 30.
RF, 3, 3
RF, 4, 4
RF, 5, 5
RF, 6, 6
** 
** OUTPUT REQUESTS
** 
*Restart, write, frequency=0
** 
** FIELD OUTPUT: F-Output-1
** 
*Output, field
*Node Output, variable=PRESELECT
*Element Output, directions=YES, variable=PRESELECT
** 
** HISTORY OUTPUT: Internal energy
** 
*Output, history
*Energy Output
ALLIE, 
** 
** HISTORY OUTPUT: DisplacementForce
** 
*Node Output, nset=RF
RF2, U2
*End Step
** ----------------------------------------------------------------
** 
** STEP: P1
** 
*Step, name=P1, nlgeom=YES, inc=5000
*Static
0.01, 1., 1e-05, 0.05
** 
** LOADS
** 
** Name: P1   Type: Pressure
*Dsload, op=NEW
BellowsInner, P, 0.001
** 
** OUTPUT REQUESTS
** 
*Restart, write, frequency=0
** 
** FIELD OUTPUT: F-Output-1
** 
*Output, field
*Node Output, variable=PRESELECT
*Element Output, directions=YES, variable=PRESELECT
** 
** HISTORY OUTPUT: Internal energy
** 
*Output, history
*Energy Output
ALLIE, 
** 
** HISTORY OUTPUT: DisplacementForce
** 
*Node Output, nset=RF
RF2, U2
*End Step
** ----------------------------------------------------------------
** 
** STEP: P2
** 
*Step, name=P2, nlgeom=YES, inc=5000
*Static
0.01, 1., 1e-05, 0.05
** 
** LOADS
** 
** Name: P1   Type: Pressure
*Dsload, op=NEW
** Name: P2   Type: Pressure
*Dsload, op=NEW
BellowsInner, P, 0.002
** 
** OUTPUT REQUESTS
** 
*Restart, write, frequency=0
** 
** FIELD OUTPUT: F-Output-1
** 
*Output, field
*Node Output, variable=PRESELECT
*Element Output, directions=YES, variable=PRESELECT
** 
** HISTORY OUTPUT: Internal energy
** 
*Output, history
*Energy Output
ALLIE, 
** 
** HISTORY OUTPUT: DisplacementForce
** 
*Node Output, nset=RF
RF2, U2
*End Step
** ----------------------------------------------------------------
** 
** STEP: P3
** 
*Step, name=P3, nlgeom=YES, inc=5000
*Static
0.01, 1., 1e-05, 0.05
** 
** LOADS
** 
** Name: P2   Type: Pressure
*Dsload, op=NEW
** Name: P3   Type: Pressure
*Dsload, op=NEW
BellowsInner, P, 0.003
** 
** OUTPUT REQUESTS
** 
*Restart, write, frequency=0
** 
** FIELD OUTPUT: F-Output-1
** 
*Output, field
*Node Output, variable=PRESELECT
*Element Output, directions=YES, variable=PRESELECT
** 
** HISTORY OUTPUT: Internal energy
** 
*Output, history
*Energy Output
ALLIE, 
** 
** HISTORY OUTPUT: DisplacementForce
** 
*Node Output, nset=RF
RF2, U2
*End Step
** ----------------------------------------------------------------
** 
** STEP: P4
** 
*Step, name=P4, nlgeom=YES, inc=5000
*Static
0.01, 1., 1e-05, 0.05
** 
** LOADS
** 
** Name: P3   Type: Pressure
*Dsload, op=NEW
** Name: P4   Type: Pressure
*Dsload, op=NEW
BellowsInner, P, 0.004
** 
** OUTPUT REQUESTS
** 
*Restart, write, frequency=0
** 
** FIELD OUTPUT: F-Output-1
** 
*Output, field
*Node Output, variable=PRESELECT
*Element Output, directions=YES, variable=PRESELECT
** 
** HISTORY OUTPUT: Internal energy
** 
*Output, history
*Energy Output
ALLIE, 
** 
** HISTORY OUTPUT: DisplacementForce
** 
*Node Output, nset=RF
RF2, U2
*End Step
** ----------------------------------------------------------------
** 
** STEP: P5
** 
*Step, name=P5, nlgeom=YES, inc=5000
*Static
0.01, 1., 1e-05, 0.05
** 
** LOADS
** 
** Name: P4   Type: Pressure
*Dsload, op=NEW
** Name: P5   Type: Pressure
*Dsload, op=NEW
BellowsInner, P, 0.005
** 
** OUTPUT REQUESTS
** 
*Restart, write, frequency=0
** 
** FIELD OUTPUT: F-Output-1
** 
*Output, field
*Node Output, variable=PRESELECT
*Element Output, directions=YES, variable=PRESELECT
** 
** HISTORY OUTPUT: Internal energy
** 
*Output, history
*Energy Output
ALLIE, 
** 
** HISTORY OUTPUT: DisplacementForce
** 
*Node Output, nset=RF
RF2, U2
*End Step
** ----------------------------------------------------------------
** 
** STEP: P6
** 
*Step, name=P6, nlgeom=YES, inc=5000
*Static
0.01, 1., 1e-05, 0.05
** 
** LOADS
** 
** Name: P5   Type: Pressure
*Dsload, op=NEW
** Name: P6   Type: Pressure
*Dsload, op=NEW
BellowsInner, P, 0.006
** 
** OUTPUT REQUESTS
** 
*Restart, write, frequency=0
** 
** FIELD OUTPUT: F-Output-1
** 
*Output, field
*Node Output, variable=PRESELECT
*Element Output, directions=YES, variable=PRESELECT
** 
** HISTORY OUTPUT: Internal energy
** 
*Output, history
*Energy Output
ALLIE, 
** 
** HISTORY OUTPUT: DisplacementForce
** 
*Node Output, nset=RF
RF2, U2
*End Step
** ----------------------------------------------------------------
** 
** STEP: P7
** 
*Step, name=P7, nlgeom=YES, inc=5000
*Static
0.01, 1., 1e-05, 0.05
** 
** LOADS
** 
** Name: P6   Type: Pressure
*Dsload, op=NEW
** Name: P7   Type: Pressure
*Dsload, op=NEW
BellowsInner, P, 0.007
** 
** OUTPUT REQUESTS
** 
*Restart, write, frequency=0
** 
** FIELD OUTPUT: F-Output-1
** 
*Output, field
*Node Output, variable=PRESELECT
*Element Output, directions=YES, variable=PRESELECT
** 
** HISTORY OUTPUT: Internal energy
** 
*Output, history
*Energy Output
ALLIE, 
** 
** HISTORY OUTPUT: DisplacementForce
** 
*Node Output, nset=RF
RF2, U2
*End Step
** ----------------------------------------------------------------
** 
** STEP: P8
** 
*Step, name=P8, nlgeom=YES, inc=5000
*Static
0.01, 1., 1e-05, 0.05
** 
** LOADS
** 
** Name: P7   Type: Pressure
*Dsload, op=NEW
** Name: P8   Type: Pressure
*Dsload, op=NEW
BellowsInner, P, 0.008
** 
** OUTPUT REQUESTS
** 
*Restart, write, frequency=0
** 
** FIELD OUTPUT: F-Output-1
** 
*Output, field
*Node Output, variable=PRESELECT
*Element Output, directions=YES, variable=PRESELECT
** 
** HISTORY OUTPUT: Internal energy
** 
*Output, history
*Energy Output
ALLIE, 
** 
** HISTORY OUTPUT: DisplacementForce
** 
*Node Output, nset=RF
RF2, U2
*End Step
** ----------------------------------------------------------------
** 
** STEP: P9
** 
*Step, name=P9, nlgeom=YES, inc=5000
*Static
0.01, 1., 1e-05, 0.05
** 
** LOADS
** 
** Name: P8   Type: Pressure
*Dsload, op=NEW
** Name: P9   Type: Pressure
*Dsload, op=NEW
BellowsInner, P, 0.009
** 
** OUTPUT REQUESTS
** 
*Restart, write, frequency=0
** 
** FIELD OUTPUT: F-Output-1
** 
*Output, field
*Node Output, variable=PRESELECT
*Element Output, directions=YES, variable=PRESELECT
** 
** HISTORY OUTPUT: Internal energy
** 
*Output, history
*Energy Output
ALLIE, 
** 
** HISTORY OUTPUT: DisplacementForce
** 
*Node Output, nset=RF
RF2, U2
*End Step
** ----------------------------------------------------------------
** 
** STEP: P10
** 
*Step, name=P10, nlgeom=YES, inc=5000
*Static
0.01, 1., 1e-05, 0.05
** 
** LOADS
** 
** Name: P9   Type: Pressure
*Dsload, op=NEW
** Name: P10   Type: Pressure
*Dsload, op=NEW
BellowsInner, P, 0.01
** 
** OUTPUT REQUESTS
** 
*Restart, write, frequency=0
** 
** FIELD OUTPUT: F-Output-1
** 
*Output, field
*Node Output, variable=PRESELECT
*Element Output, directions=YES, variable=PRESELECT
** 
** HISTORY OUTPUT: Internal energy
** 
*Output, history
*Energy Output
ALLIE, 
** 
** HISTORY OUTPUT: DisplacementForce
** 
*Node Output, nset=RF
RF2, U2
*End Step
